7

C                0.000000   -0.737081   -0.387935
H               -0.909177   -1.260159   -0.602907
H                0.909177   -1.260159   -0.602907
C                0.000000    0.737081   -0.387935
H                0.909177    1.260159   -0.602907
H               -0.909177    1.260159   -0.602907
O                0.000000    0.000000    0.883289
