12

N                  1.20809735    0.69749533   -0.00000000
B                  0.00000000    1.39499067   -0.00000000
N                 -1.20809735    0.69749533   -0.00000000
B                 -1.20809735   -0.69749533   -0.00000000
N                 -0.00000000   -1.39499067   -0.00000000
B                  1.20809735   -0.69749533   -0.00000000
H                  2.16038781    1.24730049   -0.00000000
H                  0.00000000    2.49460097   -0.00000000
H                 -2.16038781    1.24730049   -0.00000000
H                 -2.16038781   -1.24730049   -0.00000000
H                  0.00000000   -2.49460097   -0.00000000
H                  2.16038781   -1.24730049   -0.00000000
