38

N          0.000000    0.000000    2.089811
N          0.000000    2.021053    0.000000
N          0.000000    0.000000   -2.089811
N          0.000000   -2.021053    0.000000
C          0.000000   -1.125057    2.860183
C          0.000000   -0.678153    4.222512
C          0.000000    0.678153    4.222512
C          0.000000    1.125057    2.860183
C          0.000000    2.424326    2.410266
C          0.000000    2.825886    1.089317
C          0.000000    4.231339    0.669482
C          0.000000    4.231339   -0.669482
C          0.000000    2.825886   -1.089317
C          0.000000    2.424326   -2.410266
C          0.000000    1.125057   -2.860183
C          0.000000    0.678153   -4.222512
C          0.000000   -0.678153   -4.222512
C          0.000000   -1.125057   -2.860183
C          0.000000   -2.424326   -2.410266
C          0.000000   -2.825886   -1.089317
C          0.000000   -4.231339   -0.669482
C          0.000000   -4.231339    0.669482
C          0.000000   -2.825886    1.089317
C          0.000000   -2.424326    2.410266
H          0.000000   -1.325667    5.069378
H          0.000000    1.325667    5.069378
H          0.000000    3.190358    3.159860
H          0.000000    5.067928    1.331435
H          0.000000    5.067928   -1.331435
H          0.000000    3.190358   -3.159860
H          0.000000    1.325667   -5.069378
H          0.000000   -1.325667   -5.069378
H          0.000000   -3.190358   -3.159860
H          0.000000   -5.067928   -1.331435
H          0.000000   -5.067928    1.331435
H          0.000000   -3.190358    3.159860
H          0.000000    0.000000    1.089110
H          0.000000    0.000000   -1.089110
