53
Exotic molecule made with atoms from the C group
C	0.3292970	0.3255000	0.2864720
Si	0.4875090	0.7154200	2.1712080
Ge	0.6763190	1.9474300	-0.8510250
Sn	1.7118960	-1.2745430	-0.2819670
Pb	-1.7615030	-0.4066480	-0.1468520
C	-0.8526860	3.1995460	-0.8974890
C	2.2362840	3.0008540	-0.2495850
C	2.3011110	0.8020000	2.7525570
C	-0.3061910	2.3743630	2.6677900
C	1.0443010	1.4894590	-2.7377820
C	1.1458480	-2.2384360	-2.1126460
C	1.8299080	-2.8456460	1.1727140
C	-2.0407730	-2.4990870	0.4438980
C	3.7193970	-0.5733910	-0.5631270
C	-0.3461570	-0.5998900	3.2690670
C	-3.3020680	0.7484560	0.8979810
C	-2.2729810	-0.3169300	-2.2749920
H	-1.1365820	3.5397360	0.0906980
H	-1.7258280	2.7666240	-1.3732360
H	-0.5614610	4.0701200	-1.4796290
H	2.3944980	3.8081660	-0.9600920
H	3.1405610	2.4044970	-0.2172000
H	2.0862550	3.4464160	0.7270550
H	2.8795010	1.5326130	2.2000580
H	2.8088440	-0.1538390	2.6779320
H	2.3188370	1.0930610	3.8000270
H	-1.3558860	2.4248640	2.4033410
H	0.1934850	3.2285010	2.2249620
H	-0.2349560	2.4822220	3.7473440
H	1.9712630	0.9400900	-2.8593520
H	1.1391700	2.4170090	-3.2965570
H	0.2445600	0.9132290	-3.1864860
H	1.9044810	-2.9804030	-2.3496550
H	1.0877710	-1.5434430	-2.9420660
H	0.1952550	-2.7546690	-2.0305940
H	2.2449370	-2.5090680	2.1163630
H	2.4852710	-3.6178360	0.7772550
H	0.8623300	-3.2956470	1.3645460
H	-1.4108100	-3.1661120	-0.1334450
H	-3.0782360	-2.7585230	0.2538530
H	-1.8352900	-2.6432040	1.4975170
H	4.1034270	-0.0843760	0.3251320
H	3.8028650	0.1158390	-1.3963700
H	4.3531760	-1.4307610	-0.7755640
H	0.0285240	-1.5987400	3.0815310
H	-1.4246510	-0.6178580	3.1544800
H	-0.1390450	-0.3630200	4.3098050
H	-3.2347130	1.8017720	0.6537350
H	-3.2316450	0.6294640	1.9728240
H	-4.2693510	0.3773140	0.5721830
H	-3.2625750	-0.7498730	-2.3893150
H	-1.5745910	-0.8891540	-2.8734670
H	-2.3000200	0.7028180	-2.6406890
